OPT_V10/Two_days_MCY3_MIQCPM1/powerflow_results_t20.txt
Pandapower Network Debug Info
==================================================

BUS:
       vm_pu  va_degree      p_mw    q_mvar
0   0.992299   0.135108  0.000910  0.001185
1   0.987331   0.211227  0.001710  0.002122
2   0.982820   0.286632  0.002363  0.003254
3   0.988258   0.224869  0.002603  0.004330
4   0.999880   0.000979  0.010285  0.011937
5   0.999867   0.001028  0.011192  0.009280
6   0.999856   0.001081  0.012002  0.011247
7   0.999926   0.000698  0.000000  0.000000
8   0.999926   0.000704  0.000000  0.000000
9   1.000000   0.000000 -0.041236 -0.048472
10  1.000000   0.000007  0.000000  0.000000
--------------------------------------------------

LINE:
   p_from_mw  q_from_mvar   p_to_mw  q_to_mvar         pl_mw       ql_mvar  i_from_ka   i_to_ka      i_ka  vm_from_pu  va_from_degree  vm_to_pu  va_to_degree  loading_percent
0   0.041226     0.044472 -0.041222  -0.044469  3.596898e-06  2.804561e-06   0.002334  0.002334  0.002334    1.000000        0.000007  0.999926      0.000698         1.014811
1   0.033481     0.032465 -0.033480  -0.032464  1.682124e-06  1.311580e-06   0.001795  0.001795  0.001795    0.999926        0.000698  0.999880      0.000979         0.780513
2   0.007731     0.011004 -0.007646  -0.010938  8.460322e-05  6.596652e-05   0.019412  0.019412  0.019412    0.999926        0.000704  0.992299      0.135108         8.440181
3  -0.023194    -0.020527  0.023195   0.020527  3.318472e-07  2.587467e-07   0.001192  0.001192  0.001192    0.999867        0.001028  0.999880      0.000979         0.518397
4  -0.012002    -0.011247  0.012002   0.011247  1.323489e-07  1.031946e-07   0.000633  0.000633  0.000633    0.999856        0.001081  0.999867      0.001028         0.275294
5  -0.004088    -0.005388  0.004116   0.005410  2.776257e-05  2.164693e-05   0.009887  0.009887  0.009887    0.987331        0.211227  0.992299      0.135108         4.298908
6  -0.002603    -0.004330  0.002620   0.004344  1.745097e-05  1.360681e-05   0.007379  0.007379  0.007379    0.988258        0.224869  0.992299      0.135108         3.208306
7  -0.002363    -0.003254  0.002378   0.003266  1.514551e-05  1.180921e-05   0.005906  0.005906  0.005906    0.982820        0.286632  0.987331      0.211227         2.567833
--------------------------------------------------

TRAFO:
    p_hv_mw  q_hv_mvar   p_lv_mw  q_lv_mvar    pl_mw  ql_mvar   i_hv_ka   i_lv_ka  vm_hv_pu  va_hv_degree  vm_lv_pu  va_lv_degree  loading_percent
0  0.007741   0.012004 -0.007731  -0.011004  0.00001    0.001  0.000550  0.019412  0.999926      0.000698  0.999926      0.000704         0.142845
1  0.041236   0.048472 -0.041226  -0.044472  0.00001    0.004  0.000525  0.002334  1.000000      0.000000  1.000000      0.000007         0.159097
--------------------------------------------------
